LTspice 24.0.12 for Windows
Circuit: * C:\Users\Welcome\Desktop\CK\BITS\Second Year\EMT\LT Spice Assignment\Question 1\Impedance matching\load.asc
Start Time: Wed Oct 16 23:50:02 2024
solver = Normal
Maximum thread count: 8
tnom = 27
temp = 27
method = modified trap
.OP point found by inspection.
Total elapsed time: 0.061 seconds.

