LTspice 24.0.12 for Windows
Circuit: * C:\Users\Welcome\Desktop\CK\BITS\Second Year\EMT\LT Spice Assignment\Question 1\No load\no load.asc
Start Time: Wed Oct 16 23:48:27 2024
solver = Normal
Maximum thread count: 8
tnom = 27
temp = 27
method = modified trap
WARNING: Less than two connections to node vload.  This node is used by t1.
.OP point found by inspection.
Total elapsed time: 0.057 seconds.

